#======================================================================

# CRYSTAL DATA

#----------------------------------------------------------------------

data_1

_chemical_name_common                  'New structure'
_cell_length_a                         5
_cell_length_b                         13.228756555
_cell_length_c                         5
_cell_angle_alpha                      90
_cell_angle_beta                       90
_cell_angle_gamma                      19.11

loop_
   _atom_site_label
   _atom_site_type_symbol
   _atom_site_occupancy
   _atom_site_fract_x
   _atom_site_fract_y
   _atom_site_fract_z
   _atom_site_adp_type
   _atom_site_B_iso_or_equiv
   C    C     1  0.000000      0.000000      0.000000     Biso  1.000000
   O    O     1  0.500000      0.500000      0.500000     Biso  1.000000
   N    N     1  0.250000      0.250000      0.250000     Biso  1.000000
