
#######################################################################
#
#                 Cambridge Crystallographic Data Centre
#                                CCDC 
#
#######################################################################
#
# If this CIF has been generated from an entry in the Cambridge 
# Structural Database, then it will include bibliographic, chemical, 
# crystal, experimental, refinement or atomic coordinate data resulting 
# from the CCDC's data processing and validation procedures.
#
#######################################################################

data_ABAGES
_chemical_formula_moiety         'C18 H17 N3 O3'
_chemical_name_systematic        
2-(1,3-oxazolidin-2-ylidene)-N,N'-diphenylmalonamide
_symmetry_cell_setting           monoclinic
_symmetry_space_group_name_H-M   'P 21/c'
_symmetry_Int_Tables_number      14
_space_group_name_Hall           '-P 2ybc'
loop_
_symmetry_equiv_pos_site_id
_symmetry_equiv_pos_as_xyz
1 x,y,z
2 -x,1/2+y,1/2-z
3 -x,-y,-z
4 x,1/2-y,1/2+z
_cell_length_a                   8.9690(4)
_cell_length_b                   20.3395(9)
_cell_length_c                   8.8711(4)
_cell_angle_alpha                90
_cell_angle_beta                 109.65
_cell_angle_gamma                90
_cell_volume                     1524.07
_cell_formula_units_Z            4
loop_
_atom_site_label
_atom_site_type_symbol
_atom_site_fract_x
_atom_site_fract_y
_atom_site_fract_z
_atom_site_U_iso_or_equiv
_atom_site_thermal_displace_type
O1 O 0.21590(9) 0.49995(4) 0.49135(9) 0.0204 Uani
O2 O 0.40318(9) 0.67056(4) 0.35154(9) 0.0210 Uani
O3 O 0.44947(9) 0.49519(4) 0.16321(9) 0.0199 Uani
N1 N 0.27529(11) 0.60797(4) 0.54907(11) 0.0187 Uani
H1 H 0.3074 0.6439 0.5139 0.0220 Uiso
N2 N 0.59526(11) 0.60536(4) 0.31625(11) 0.0184 Uani
H2 H 0.6335 0.5651 0.3315 0.0220 Uiso
N3 N 0.28861(11) 0.44259(4) 0.26180(11) 0.0211 Uani
H3 H 0.2236 0.4363 0.3159 0.0250 Uiso
C1 C 0.14839(14) 0.63856(6) 0.95930(14) 0.0267 Uani
H4 H 0.1244 0.6458 1.0545 0.0320 Uiso
C2 C 0.10932(14) 0.57961(6) 0.87709(14) 0.0263 Uani
H5 H 0.0571 0.5465 0.9163 0.0320 Uiso
C3 C 0.14482(13) 0.56772(6) 0.73810(13) 0.0221 Uani
H6 H 0.1148 0.5275 0.6817 0.0270 Uiso
C4 C 0.22524(12) 0.61587(5) 0.68284(12) 0.0180 Uani
C5 C 0.28018(12) 0.55159(5) 0.46743(12) 0.0168 Uani
C6 C 0.36929(12) 0.55438(5) 0.35640(12) 0.0168 Uani
C7 C 0.45413(12) 0.61470(5) 0.33964(12) 0.0172 Uani
C8 C 0.68755(12) 0.65264(5) 0.27035(12) 0.0168 Uani
C9 C 0.85041(13) 0.64200(5) 0.31554(13) 0.0194 Uani
H7 H 0.8973 0.6058 0.3823 0.0230 Uiso
C10 C 0.94393(13) 0.68450(6) 0.26273(13) 0.0222 Uani
H8 H 1.0549 0.6773 0.2940 0.0270 Uiso
C11 C 0.87614(13) 0.73741(6) 0.16445(13) 0.0229 Uani
H9 H 0.9402 0.7662 0.1281 0.0270 Uiso
C12 C 0.26245(13) 0.67574(5) 0.76442(13) 0.0207 Uani
H10 H 0.3151 0.7090 0.7264 0.0250 Uiso
C13 C 0.22293(13) 0.68677(6) 0.90047(14) 0.0244 Uani
H11 H 0.2473 0.7279 0.9540 0.0290 Uiso
C14 C 0.71440(14) 0.74775(5) 0.11998(13) 0.0218 Uani
H12 H 0.6677 0.7838 0.0526 0.0260 Uiso
C15 C 0.61962(13) 0.70597(5) 0.17280(13) 0.0198 Uani
H13 H 0.5090 0.7137 0.1425 0.0240 Uiso
C16 C 0.36808(12) 0.49822(5) 0.26569(12) 0.0171 Uani
C17 C 0.32152(14) 0.39329(5) 0.15777(14) 0.0228 Uani
H14 H 0.2232 0.3724 0.0870 0.0270 Uiso
H15 H 0.3949 0.3590 0.2199 0.0270 Uiso
C18 C 0.39836(13) 0.43627(5) 0.06390(13) 0.0210 Uani
H16 H 0.4899 0.4136 0.0486 0.0250 Uiso
H17 H 0.3214 0.4477 -0.0423 0.0250 Uiso
loop_
_atom_site_aniso_label
_atom_site_aniso_U_11
_atom_site_aniso_U_22
_atom_site_aniso_U_33
_atom_site_aniso_U_23
_atom_site_aniso_U_13
_atom_site_aniso_U_12
O1 0.0229(4) 0.0183(4) 0.0229(4) -0.0011(3) 0.0116(3) -0.0034(3)
O2 0.0251(4) 0.0161(4) 0.0257(4) -0.0006(3) 0.0135(3) 0.0001(3)
O3 0.0246(4) 0.0186(4) 0.0203(4) -0.0046(3) 0.0124(3) -0.0033(3)
N1 0.0234(5) 0.0161(4) 0.0196(4) 0.0001(3) 0.0111(4) -0.0009(3)
N2 0.0194(4) 0.0143(4) 0.0235(5) 0.0010(3) 0.0098(4) -0.0005(3)
N3 0.0252(5) 0.0182(4) 0.0236(5) -0.0051(4) 0.0132(4) -0.0049(4)
C1 0.0250(6) 0.0383(7) 0.0185(5) -0.0016(5) 0.0094(4) 0.0075(5)
C2 0.0238(6) 0.0336(6) 0.0251(6) 0.0025(5) 0.0128(5) 0.0005(5)
C3 0.0221(5) 0.0239(6) 0.0227(5) -0.0014(4) 0.0106(4) -0.0015(4)
C4 0.0164(5) 0.0210(5) 0.0167(5) 0.0004(4) 0.0057(4) 0.0036(4)
C5 0.0154(5) 0.0179(5) 0.0160(5) 0.0007(4) 0.0040(4) 0.0007(4)
C6 0.0178(5) 0.0164(5) 0.0170(5) -0.0001(4) 0.0068(4) -0.0003(4)
C7 0.0193(5) 0.0183(5) 0.0140(5) -0.0005(4) 0.0057(4) -0.0009(4)
C8 0.0199(5) 0.0165(5) 0.0158(5) -0.0029(4) 0.0084(4) -0.0026(4)
C9 0.0211(5) 0.0191(5) 0.0182(5) 0.0003(4) 0.0068(4) 0.0005(4)
C10 0.0177(5) 0.0270(6) 0.0223(5) -0.0005(4) 0.0071(4) -0.0018(4)
C11 0.0243(6) 0.0240(6) 0.0225(5) 0.0008(4) 0.0107(4) -0.0060(4)
C12 0.0195(5) 0.0208(5) 0.0212(5) 0.0002(4) 0.0060(4) 0.0031(4)
C13 0.0231(5) 0.0270(6) 0.0211(5) -0.0051(4) 0.0048(4) 0.0062(4)
C14 0.0269(6) 0.0201(5) 0.0193(5) 0.0030(4) 0.0091(4) 0.0006(4)
C15 0.0191(5) 0.0207(5) 0.0202(5) 0.0000(4) 0.0074(4) 0.0007(4)
C16 0.0163(5) 0.0193(5) 0.0159(5) 0.0010(4) 0.0058(4) 0.0003(4)
C17 0.0267(6) 0.0190(5) 0.0247(6) -0.0055(4) 0.0114(5) -0.0026(4)
C18 0.0255(5) 0.0181(5) 0.0204(5) -0.0056(4) 0.0089(4) -0.0015(4)
loop_
_geom_bond_atom_site_label_1
_geom_bond_atom_site_label_2
_geom_bond_site_symmetry_1
_geom_bond_site_symmetry_2
O1 C5 1_555 1_555
O2 C7 1_555 1_555
O3 C16 1_555 1_555
N1 H1 1_555 1_555
N2 H2 1_555 1_555
N3 H3 1_555 1_555
C1 H4 1_555 1_555
C2 C1 1_555 1_555
H5 C2 1_555 1_555
C3 C2 1_555 1_555
H6 C3 1_555 1_555
C4 N1 1_555 1_555
C5 N1 1_555 1_555
C6 C5 1_555 1_555
C7 N2 1_555 1_555
C8 N2 1_555 1_555
C9 C8 1_555 1_555
H7 C9 1_555 1_555
C10 C9 1_555 1_555
H8 C10 1_555 1_555
C11 C10 1_555 1_555
H9 C11 1_555 1_555
C12 C4 1_555 1_555
H10 C12 1_555 1_555
C13 C1 1_555 1_555
H11 C13 1_555 1_555
C14 C11 1_555 1_555
H12 C14 1_555 1_555
C15 C8 1_555 1_555
H13 C15 1_555 1_555
C16 N3 1_555 1_555
C17 N3 1_555 1_555
H14 C17 1_555 1_555
H15 C17 1_555 1_555
C18 O3 1_555 1_555
H16 C18 1_555 1_555
H17 C18 1_555 1_555
C3 C4 1_555 1_555
C6 C7 1_555 1_555
C6 C16 1_555 1_555
C12 C13 1_555 1_555
C14 C15 1_555 1_555
C17 C18 1_555 1_555

#END
