
#######################################################################
#
#                 Cambridge Crystallographic Data Centre
#                                CCDC 
#
#######################################################################
#
# If this CIF has been generated from an entry in the Cambridge 
# Structural Database, then it will include bibliographic, chemical, 
# crystal, experimental, refinement or atomic coordinate data resulting 
# from the CCDC's data processing and validation procedures.
#
#######################################################################

data_ABIJIH
_chemical_formula_moiety         'C16 H23 N1 O2 Si1'
_chemical_name_systematic        
7,7-dimethyl-4-oxo-3-((trimethylsilyl)carbonyl)-1,4,5,6,7,7a-hexahydro-3aH-indene-3a-carbonitrile
_symmetry_cell_setting           triclinic
_symmetry_space_group_name_H-M   'P -1'
_symmetry_Int_Tables_number      2
_space_group_name_Hall           '-P 1'
loop_
_symmetry_equiv_pos_site_id
_symmetry_equiv_pos_as_xyz
1 x,y,z
2 -x,-y,-z
_cell_length_a                   11.211(10)
_cell_length_b                   12.349(11)
_cell_length_c                   12.562(11)
_cell_angle_alpha                109.016(18)
_cell_angle_beta                 90.043(17)
_cell_angle_gamma                101.568(17)
_cell_volume                     1606.73
_exptl_crystal_colour            yellow
_exptl_crystal_description       Columnar
_chemical_melting_point          '95-96 deg.C'
_cell_formula_units_Z            4
loop_
_atom_site_label
_atom_site_type_symbol
_atom_site_fract_x
_atom_site_fract_y
_atom_site_fract_z
_atom_site_U_iso_or_equiv
_atom_site_thermal_displace_type
C1 C 0.5583(6) 0.1058(6) 0.3357(6) 0.0283 Uani
H1 H 0.5500 0.0220 0.3237 0.0420 Uiso
H2 H 0.5918 0.1233 0.2697 0.0420 Uiso
H3 H 0.4780 0.1261 0.3467 0.0420 Uiso
C2 C 0.6994(5) 0.3469(6) 0.4521(6) 0.0196 Uani
C3 C 0.6858(5) 0.4562(6) 0.5373(5) 0.0181 Uani
C4 C 0.7380(5) 0.5779(6) 0.5266(5) 0.0161 Uani
C5 C 0.8808(5) 0.5986(5) 0.5295(5) 0.0174 Uani
C6 C 0.9385(5) 0.6247(6) 0.6465(6) 0.0209 Uani
H4 H 1.0284 0.6401 0.6442 0.0250 Uiso
H5 H 0.9133 0.5550 0.6704 0.0250 Uiso
C7 C 0.9019(5) 0.7312(6) 0.7342(5) 0.0222 Uani
H6 H 0.8836 0.7118 0.8038 0.0270 Uiso
H7 H 0.9733 0.7978 0.7536 0.0270 Uiso
C8 C 0.7923(5) 0.7721(6) 0.6986(5) 0.0185 Uani
C9 C 0.8319(6) 0.8463(6) 0.6202(6) 0.0294 Uani
H8 H 0.7604 0.8687 0.5954 0.0440 Uiso
H9 H 0.8677 0.7999 0.5542 0.0440 Uiso
H10 H 0.8924 0.9170 0.6618 0.0440 Uiso
C10 C 0.7428(6) 0.8471(6) 0.8011(6) 0.0223 Uani
H11 H 0.7232 0.8040 0.8541 0.0340 Uiso
H12 H 0.6687 0.8673 0.7785 0.0340 Uiso
H13 H 0.8041 0.9190 0.8375 0.0340 Uiso
C11 C 0.6910(5) 0.6627(6) 0.6323(5) 0.0183 Uani
H14 H 0.6238 0.6917 0.6052 0.0220 Uiso
C12 C 0.6355(6) 0.5886(6) 0.7044(6) 0.0215 Uani
H15 H 0.6866 0.6099 0.7754 0.0260 Uiso
H16 H 0.5522 0.6003 0.7231 0.0260 Uiso
C13 C 0.6322(5) 0.4658(6) 0.6336(6) 0.0209 Uani
H17 H 0.5955 0.4003 0.6547 0.0250 Uiso
C14 C 0.6944(5) 0.5868(6) 0.4191(6) 0.0187 Uani
C15 C 0.8143(6) 0.1504(7) 0.4539(9) 0.0490 Uani
H18 H 0.8667 0.1987 0.5222 0.0730 Uiso
H19 H 0.8528 0.1627 0.3876 0.0730 Uiso
H20 H 0.8028 0.0676 0.4471 0.0730 Uiso
C16 C 0.5934(9) 0.1752(7) 0.5903(7) 0.0562 Uani
H21 H 0.5108 0.1903 0.5914 0.0840 Uiso
H22 H 0.6428 0.2308 0.6575 0.0840 Uiso
H23 H 0.5893 0.0950 0.5897 0.0840 Uiso
N1 N 0.6584(5) 0.5981(5) 0.3398(5) 0.0264 Uani
O1 O 0.7430(4) 0.3496(4) 0.3624(4) 0.0275 Uani
O2 O 0.9351(4) 0.5942(4) 0.4475(4) 0.0226 Uani
Si1 Si 0.66309(16) 0.19298(17) 0.46332(16) 0.0223 Uani
C17 C 0.5969(6) 0.2664(6) 0.0819(6) 0.0255 Uani
H24 H 0.6214 0.2883 0.1632 0.0300 Uiso
H25 H 0.5242 0.2013 0.0641 0.0300 Uiso
C18 C 0.7007(5) 0.2214(6) 0.0137(5) 0.0196 Uani
C19 C 0.8043(5) 0.3255(6) 0.0186(5) 0.0167 Uani
H26 H 0.8676 0.2938 -0.0310 0.0200 Uiso
C20 C 0.8183(5) 0.5354(5) 0.0652(5) 0.0136 Uani
C21 C 0.8086(5) 0.6497(6) 0.0541(6) 0.0192 Uani
C22 C 0.6923(6) 0.8315(7) 0.2036(8) 0.0437 Uani
H27 H 0.7008 0.9085 0.2620 0.0660 Uiso
H28 H 0.6449 0.7712 0.2308 0.0660 Uiso
H29 H 0.6501 0.8314 0.1352 0.0660 Uiso
C23 C 0.9305(7) 0.9018(7) 0.1014(6) 0.0349 Uani
H30 H 0.8893 0.8862 0.0274 0.0530 Uiso
H31 H 1.0140 0.8895 0.0917 0.0530 Uiso
H32 H 0.9328 0.9831 0.1485 0.0530 Uiso
C24 C 0.9375(7) 0.8120(7) 0.3000(6) 0.0337 Uani
H33 H 0.9460 0.8909 0.3551 0.0510 Uiso
H34 H 1.0184 0.7973 0.2794 0.0510 Uiso
H35 H 0.8962 0.7540 0.3331 0.0510 Uiso
C25 C 0.8684(6) 0.3967(6) 0.1379(6) 0.0264 Uani
H36 H 0.8214 0.3744 0.1970 0.0320 Uiso
H37 H 0.9519 0.3830 0.1433 0.0320 Uiso
C26 C 0.8724(5) 0.5199(6) 0.1507(6) 0.0182 Uani
H38 H 0.9108 0.5832 0.2151 0.0220 Uiso
C27 C 0.6559(7) 0.1529(7) -0.1088(6) 0.0312 Uani
H39 H 0.7249 0.1304 -0.1521 0.0470 Uiso
H40 H 0.6186 0.2020 -0.1407 0.0470 Uiso
H41 H 0.5952 0.0823 -0.1125 0.0470 Uiso
C28 C 0.7479(6) 0.1409(6) 0.0661(6) 0.0264 Uani
H42 H 0.6818 0.0741 0.0624 0.0390 Uiso
H43 H 0.7765 0.1845 0.1451 0.0390 Uiso
H44 H 0.8155 0.1124 0.0244 0.0390 Uiso
C29 C 0.5599(5) 0.3721(6) 0.0619(5) 0.0167 Uani
H45 H 0.4702 0.3550 0.0465 0.0200 Uiso
H46 H 0.5821 0.4413 0.1312 0.0200 Uiso
C30 C 0.6207(5) 0.4002(5) -0.0350(6) 0.0168 Uani
C31 C 0.8071(5) 0.4114(6) -0.1374(6) 0.0185 Uani
C32 C 0.7616(5) 0.4183(5) -0.0263(5) 0.0150 Uani
N2 N 0.8417(5) 0.4000(5) -0.2257(5) 0.0243 Uani
O3 O 0.7663(4) 0.6518(4) -0.0349(4) 0.0281 Uani
O4 O 0.5672(4) 0.4093(4) -0.1144(4) 0.0212 Uani
Si2 Si 0.84539(15) 0.80024(16) 0.17115(16) 0.0195 Uani
loop_
_atom_site_aniso_label
_atom_site_aniso_U_11
_atom_site_aniso_U_22
_atom_site_aniso_U_33
_atom_site_aniso_U_23
_atom_site_aniso_U_13
_atom_site_aniso_U_12
C1 0.016(3) 0.033(4) 0.027(4) 0.006(3) -0.002(3) -0.008(3)
C2 0.013(3) 0.024(4) 0.019(4) 0.008(3) -0.002(3) -0.004(2)
C3 0.008(3) 0.031(4) 0.015(3) 0.012(3) -0.005(2) -0.004(2)
C4 0.005(3) 0.032(4) 0.007(3) 0.005(3) -0.002(2) -0.003(2)
C5 0.008(3) 0.023(3) 0.015(3) 0.003(3) -0.006(2) -0.005(2)
C6 0.010(3) 0.026(4) 0.020(4) 0.002(3) -0.004(3) -0.002(2)
C7 0.012(3) 0.035(4) 0.011(3) -0.001(3) -0.006(2) 0.000(3)
C8 0.011(3) 0.031(4) 0.011(3) 0.007(3) 0.000(2) -0.001(2)
C9 0.033(4) 0.022(4) 0.026(4) 0.003(3) 0.001(3) -0.002(3)
C10 0.020(3) 0.029(4) 0.015(3) 0.004(3) -0.004(3) 0.004(3)
C11 0.002(2) 0.030(4) 0.020(3) 0.006(3) -0.004(2) 0.001(2)
C12 0.017(3) 0.032(4) 0.012(3) 0.007(3) 0.007(3) -0.002(3)
C13 0.007(3) 0.035(4) 0.015(3) 0.007(3) -0.007(2) -0.006(2)
C14 0.007(3) 0.028(4) 0.019(4) 0.010(3) 0.002(3) -0.005(2)
C15 0.015(3) 0.043(5) 0.086(7) 0.024(5) -0.024(4) -0.005(3)
C16 0.100(8) 0.026(4) 0.028(5) 0.013(4) -0.007(5) -0.026(5)
N1 0.017(3) 0.041(4) 0.019(3) 0.010(3) -0.002(2) 0.001(2)
O1 0.029(2) 0.032(3) 0.017(3) 0.007(2) 0.009(2) -0.002(2)
O2 0.011(2) 0.035(3) 0.017(2) 0.004(2) 0.0078(19) 0.0022(18)
Si1 0.0181(9) 0.0245(11) 0.0204(10) 0.0084(8) -0.0037(7) -0.0055(7)
C17 0.015(3) 0.042(4) 0.024(4) 0.019(3) 0.003(3) 0.003(3)
C18 0.018(3) 0.024(4) 0.017(3) 0.011(3) -0.001(3) -0.002(2)
C19 0.009(3) 0.029(4) 0.012(3) 0.009(3) 0.000(2) 0.000(2)
C20 0.005(3) 0.023(3) 0.011(3) 0.005(3) 0.000(2) 0.000(2)
C21 0.010(3) 0.029(4) 0.017(3) 0.009(3) -0.004(2) -0.002(2)
C22 0.024(4) 0.030(4) 0.055(6) -0.013(4) 0.002(4) 0.002(3)
C23 0.042(4) 0.032(4) 0.023(4) 0.010(3) -0.007(3) -0.011(3)
C24 0.035(4) 0.035(4) 0.021(4) 0.005(3) -0.016(3) -0.008(3)
C25 0.019(3) 0.037(4) 0.028(4) 0.022(3) -0.007(3) -0.002(3)
C26 0.010(3) 0.026(4) 0.017(3) 0.008(3) -0.004(2) -0.001(2)
C27 0.033(4) 0.036(4) 0.018(4) 0.004(3) -0.010(3) 0.001(3)
C28 0.025(3) 0.027(4) 0.027(4) 0.011(3) -0.004(3) 0.002(3)
C29 0.006(3) 0.030(4) 0.017(3) 0.012(3) 0.004(2) 0.003(2)
C30 0.008(3) 0.025(3) 0.015(3) 0.003(3) -0.006(2) 0.004(2)
C31 0.008(3) 0.022(3) 0.024(4) 0.010(3) -0.003(3) -0.004(2)
C32 0.012(3) 0.019(3) 0.015(3) 0.007(3) 0.002(2) 0.003(2)
N2 0.013(3) 0.043(4) 0.017(3) 0.012(3) 0.003(2) 0.003(2)
O3 0.032(3) 0.029(3) 0.023(3) 0.012(2) -0.009(2) 0.000(2)
O4 0.013(2) 0.034(3) 0.017(2) 0.012(2) -0.0011(19) 0.0002(17)
Si2 0.0106(8) 0.0241(10) 0.0181(10) 0.0032(8) -0.0014(7) -0.0024(7)
loop_
_geom_bond_atom_site_label_1
_geom_bond_atom_site_label_2
_geom_bond_site_symmetry_1
_geom_bond_site_symmetry_2
C1 H1 1_555 1_555
H2 C1 1_555 1_555
H3 C1 1_555 1_555
C2 C3 1_555 1_555
C3 C4 1_555 1_555
C4 C5 1_555 1_555
C5 C6 1_555 1_555
C6 H4 1_555 1_555
H5 C6 1_555 1_555
C7 C6 1_555 1_555
H6 C7 1_555 1_555
H7 C7 1_555 1_555
C8 C7 1_555 1_555
C9 C8 1_555 1_555
H8 C9 1_555 1_555
H9 C9 1_555 1_555
H10 C9 1_555 1_555
C10 C8 1_555 1_555
H11 C10 1_555 1_555
H12 C10 1_555 1_555
H13 C10 1_555 1_555
C11 C4 1_555 1_555
H14 C11 1_555 1_555
C12 C11 1_555 1_555
H15 C12 1_555 1_555
H16 C12 1_555 1_555
C13 C3 1_555 1_555
H17 C13 1_555 1_555
C14 C4 1_555 1_555
C15 H18 1_555 1_555
H19 C15 1_555 1_555
H20 C15 1_555 1_555
C16 H21 1_555 1_555
H22 C16 1_555 1_555
H23 C16 1_555 1_555
N1 C14 1_555 1_555
O1 C2 1_555 1_555
O2 C5 1_555 1_555
Si1 C1 1_555 1_555
C17 H24 1_555 1_555
H25 C17 1_555 1_555
C18 C17 1_555 1_555
C19 C18 1_555 1_555
H26 C19 1_555 1_555
C20 C21 1_555 1_555
C21 O3 1_555 1_555
C22 H27 1_555 1_555
H28 C22 1_555 1_555
H29 C22 1_555 1_555
C23 H30 1_555 1_555
H31 C23 1_555 1_555
H32 C23 1_555 1_555
C24 H33 1_555 1_555
H34 C24 1_555 1_555
H35 C24 1_555 1_555
C25 C19 1_555 1_555
H36 C25 1_555 1_555
H37 C25 1_555 1_555
C26 C20 1_555 1_555
H38 C26 1_555 1_555
C27 C18 1_555 1_555
H39 C27 1_555 1_555
H40 C27 1_555 1_555
H41 C27 1_555 1_555
C28 C18 1_555 1_555
H42 C28 1_555 1_555
H43 C28 1_555 1_555
H44 C28 1_555 1_555
C29 C17 1_555 1_555
H45 C29 1_555 1_555
H46 C29 1_555 1_555
C30 C29 1_555 1_555
C31 C32 1_555 1_555
C32 C19 1_555 1_555
N2 C31 1_555 1_555
O4 C30 1_555 1_555
Si2 C21 1_555 1_555
C2 Si1 1_555 1_555
C8 C11 1_555 1_555
C12 C13 1_555 1_555
C15 Si1 1_555 1_555
C16 Si1 1_555 1_555
C20 C32 1_555 1_555
C22 Si2 1_555 1_555
C23 Si2 1_555 1_555
C24 Si2 1_555 1_555
C25 C26 1_555 1_555
C30 C32 1_555 1_555

#END
